MATDSS_ver0.96/DSS_Files/Other DSS Files/Old Files/IEEE13Nodeckt_Curr_Seq.Txt

SYMMETRICAL COMPONENT CURRENTS BY CIRCUIT ELEMENT (first 3 phases)

Element            Term      I1         I2         %I2/I1    I0         %I0/I1   %Normal %Emergency

"VSOURCE.SOURCE" .   1  2.1991E-005   4.8838E-006    22.21  1.855E-011     0.00      0.00     0.00
   -                 2  2.1991E-005   4.8838E-006    22.21  1.855E-011     0.00      0.00     0.00
"TRANSFORMER.SUB"    1  2.1991E-005   4.8837E-006    22.21  1.0846E-011     0.00      0.00     0.00
   -                 2   0.0011863   0.00013501    11.38  0.00013404    11.30      0.00     0.00
"TRANSFORMER.REG1"   1   0.0010518            0     0.00           0     0.00      0.00     0.00
   -                 2   0.0017465            0     0.00           0     0.00      0.00     0.00
"TRANSFORMER.REG2"   1   0.0010518            0     0.00           0     0.00      0.00     0.00
   -                 2   0.0017465            0     0.00           0     0.00      0.00     0.00
"TRANSFORMER.REG3"   1   0.0014553            0     0.00           0     0.00      0.00     0.00
   -                 2     0.00215            0     0.00           0     0.00      0.00     0.00
"TRANSFORMER.XFM1"   1  6.9404E-005   6.1927E-010     0.00  6.234E-010     0.00      0.00     0.00
   -                 2  5.9489E-008   5.3845E-009     9.05  5.3836E-009     9.05      0.00     0.00
"CAPACITOR.CAP1" .   1       83.28   4.307E-006     0.00  5.4926E-006     0.00      0.00     0.00
   -                 2       83.28   4.307E-006     0.00  5.4926E-006     0.00      0.00     0.00
"CAPACITOR.CAP2" .   1      41.702            0     0.00           0     0.00      0.00     0.00
   -                 2      41.702            0     0.00           0     0.00      0.00     0.00
"LINE.650632" ....   1   0.0023632   0.00013501     5.71  0.00013404     5.67      0.00     0.00
   -                 2    0.001197   0.00013501    11.28  0.00013404    11.20      0.00     0.00
"LINE.632670" ....   1   0.0013714   0.00013341     9.73  0.00013562     9.89      0.00     0.00
   -                 2  0.00098251   0.00013341    13.58  0.00013562    13.80      0.00     0.00
"LINE.670671" ....   1   0.0013639   0.00013341     9.78  0.00013562     9.94      0.00     0.00
   -                 2  0.00058657   0.00013341    22.74  0.00013562    23.12      0.00     0.00
"LINE.671680" ....   1  0.00039244    2.12E-011     0.00  1.7424E-011     0.00      0.00     0.00
   -                 2  0.00019067    1.02E-011     0.00  1.8253E-012     0.00      0.00     0.00
"LINE.632633" ....   1  0.00017726   6.2441E-010     0.00  6.2034E-010     0.00      0.00     0.00
   -                 2   0.0001143   6.1557E-010     0.00  6.2217E-010     0.00      0.00     0.00
"LINE.632645" ....   1  0.00043614            0     0.00           0     0.00      0.00     0.00
   -                 2  0.00017119            0     0.00           0     0.00      0.00     0.00
"LINE.645646" ....   1  0.00018113            0     0.00           0     0.00      0.00     0.00
   -                 2  2.5005E-005            0     0.00           0     0.00      0.00     0.00
"LINE.692675" ....   1    0.016563   5.0229E-009     0.00  5.7285E-009     0.00      0.00     0.00
   -                 2    0.016361   3.3826E-009     0.00  7.1313E-009     0.00      0.00     0.00
"LINE.671684" ....   1  0.00038263            0     0.00           0     0.00      0.00     0.00
   -                 2   0.0002233            0     0.00           0     0.00      0.00     0.00
"LINE.684611" ....   1  0.00017292            0     0.00           0     0.00      0.00     0.00
   -                 2  2.8854E-005            0     0.00           0     0.00      0.00     0.00
"LINE.684652" ....   1    0.016291            0     0.00           0     0.00      0.00     0.00
   -                 2    0.016089            0     0.00           0     0.00      0.00     0.00
"LINE.671692" ....   1  0.00030436   4.494E-007     0.15  2.4658E-006     0.81      0.00     0.00
   -                 2  0.00030436   4.494E-007     0.15  2.4658E-006     0.81      0.00     0.00
"LOAD.671" .......   1       184.6   1.2221E-005     0.00  9.4641E-006     0.00      0.00     0.00
"LOAD.634A" ......   1      700.56            0     0.00           0     0.00      0.00     0.00
"LOAD.634B" ......   1      541.21            0     0.00           0     0.00      0.00     0.00
"LOAD.634C" ......   1      541.21            0     0.00           0     0.00      0.00     0.00
"LOAD.645" .......   1      87.847            0     0.00           0     0.00      0.00     0.00
"LOAD.646" .......   1      63.753            0     0.00           0     0.00      0.00     0.00
"LOAD.692" .......   1      54.658            0     0.00           0     0.00      0.00     0.00
"LOAD.675A" ......   1      216.85            0     0.00           0     0.00      0.00     0.00
"LOAD.675B" ......   1      37.754            0     0.00           0     0.00      0.00     0.00
"LOAD.675C" ......   1      149.55            0     0.00           0     0.00      0.00     0.00
"LOAD.611" .......   1      78.285            0     0.00           0     0.00      0.00     0.00
"LOAD.652" .......   1      64.307            0     0.00           0     0.00      0.00     0.00
"LOAD.670A" ......   1       8.211            0     0.00           0     0.00      0.00     0.00
"LOAD.670B" ......   1      31.706            0     0.00           0     0.00      0.00     0.00
"LOAD.670C" ......   1      56.338            0     0.00           0     0.00      0.00     0.00
